35
	Energy:      95.0664443
C         -8.52245        0.31592        1.65413
O         -7.26912        0.32283        0.98897
H         -9.17945       -0.37589        1.11893
H         -8.99093        1.30247        1.62571
H         -8.43739       -0.03500        2.68433
C         -6.19258        1.09419        1.56157
C         -6.59714        2.54731        1.91762
C         -5.09235        1.12313        0.45066
O         -5.31610        2.06195       -0.60773
H         -4.93396        0.12507        0.02697
H         -4.13822        1.42558        0.89583
H         -5.78778        3.24513        1.66294
C         -6.88540        2.71486        3.40920
H         -7.45688        2.88391        1.32689
C         -5.64922        2.37675        4.26717
H         -7.71446        2.06070        3.69733
O         -7.30672        4.05642        3.66092
C         -4.81652        1.21702        3.71389
H         -5.98812        2.14205        5.28268
O         -4.82173        3.54194        4.39199
C         -5.63054        0.32061        2.78562
H         -4.43107        0.62269        4.55142
H         -3.92872        1.59164        3.19068
H         -6.43543       -0.14005        3.36842
H         -5.01473       -0.52228        2.44669
C         -6.39845        1.77680       -1.49148
C         -6.21710        0.49491       -2.30366
H         -6.45768        2.62260       -2.18682
H         -7.35672        1.78274       -0.96386
H         -5.21497        0.44817       -2.74278
O         -7.18171        0.40845       -3.34804
H         -6.33448       -0.38840       -1.66941
H         -7.01077        1.14393       -3.96120
H         -6.60184        4.47271        4.19810
H         -4.46386        3.75835        3.51169
