31
	Energy:     -47.5316596
C          0.66865       -0.30626       -1.32403
N          0.35672       -1.48373       -0.51829
C         -0.72573       -1.35478        0.46340
C         -1.72903       -2.51138        0.32727
O         -2.04247       -2.74764       -1.05759
C         -1.27415       -3.83057        0.97752
O         -2.34534       -4.77722        0.83988
C         -0.01908       -4.46992        0.37973
C          1.21732       -3.61146        0.57940
N          2.42739       -4.38530        0.24512
C          2.99737       -3.72714       -0.71820
N          4.15937       -4.08285       -1.31825
C          4.69639       -5.41452       -1.21516
N          2.35733       -2.60191       -1.15581
C          1.30280       -2.48584       -0.42348
H         -0.15913        0.40979       -1.34733
H          0.87056       -0.59817       -2.36014
H          1.54968        0.20675       -0.92406
H         -0.32627       -1.28605        1.48163
H         -1.27554       -0.42371        0.28012
H         -2.67232       -2.21488        0.80169
H         -1.21741       -2.56246       -1.55167
H         -1.12701       -3.67540        2.05253
H         -2.65743       -4.69225       -0.08383
H         -0.17930       -4.69418       -0.68335
H          0.13193       -5.44829        0.85570
H          1.30044       -3.22259        1.59948
H          4.30366       -3.60811       -2.19984
H          4.03492       -6.13829       -1.70108
H          5.67235       -5.45801       -1.70773
H          4.83621       -5.70475       -0.16900
